#------------------------------------------------------------------------------
# This is a fake CIF file to demonstrate rgl.cry package.
# These parameters were dirived from [1] and have been modified for our use.
#
# [1] https://unit.aist.go.jp/ifm-ri/ja/groups/db-nomura/common/STRUC-CIF/LaGaO3.cif
#------------------------------------------------------------------------------

_pd_phase_name                         'LaGaO3'
_cell_length_a                         5.52432(2)
_cell_length_b                         5.49246(2)
_cell_length_c                         7.77448(4)
_cell_angle_alpha                      90
_cell_angle_beta                       90
_cell_angle_gamma                      90
_symmetry_space_group_name_H-M         'P b n m'
_symmetry_Int_Tables_number            62

loop_
_symmetry_equiv_pos_as_xyz
'x, y, z'
'-x, -y, -z'
'x+1/2, -y+1/2, -z'
'-x+1/2, y+1/2, z'
'-x, -y, z+1/2'
'x, y, -z+1/2'
'-x+1/2, y+1/2, -z+1/2'
'x+1/2, -y+1/2, z+1/2'

loop_
_atom_site_label
_atom_site_occupancy
_atom_site_fract_x
_atom_site_fract_y
_atom_site_fract_z
_atom_site_thermal_displace_type
_atom_site_B_iso_or_equiv
_atom_site_type_symbol
La       1   -0.0047(2)   -0.0168(2)    0.25        Biso  0.39   La
Ga       1    0.5          0            0           Biso  0.29   Ga
O1       1    0.0681(2)    0.5078(3)    0.25        Biso  0.41   O
O2       1    0.2705(2)    0.2714(2)    0.5365(1)   Biso  0.53   O

